ELEMENTS
H O N
END
SPECIES
N2 H2 O2 H O OH HO2 H2O2 H2O 
END
REACTIONS
H2+O2<=>HO2+H 	1.00E+14  0.0 	56000.0
H+O2<=>OH+O 		2.60E+14  0.0 	16800.0
O+H2<=>OH+H 		1.80E+10  1.0 	8900.0
OH+H2<=>H2O+H 	2.20E+13  0.0 	5150.0
OH+OH<=>H2O+O 	6.30E+12  0.0 	1090.0
H+OH+M<=>H2O+M 	2.20E+22  -2.0   0.0
 H2O/6.0/
H+H+M<=>H2+M	    6.40E+17  -1.0   0.0
 H2O/6.0/ H2/2.0/ 
H+O+M<=>OH+M 		6.00E+16  -0.6   0.0
H2O/5.0/
H+O2+M<=>HO2+M 	2.10E+15  0.0 	-1000.0
H2O/16.0/ H2/2.0/ 
HO2+H<=>OH+OH 	1.40E+14  0.0 	1080.0
HO2+H<=>H2O+O 	1.00E+13  0.0 	1080.0
HO2+O<=>O2+OH 	1.50E+13  0.0 	950
HO2+OH<=>H2O+O2 	8.00E+12  0.0 	0.0
HO2+HO2<=>H2O2+O2 2.00E+12  0.0 	0.0
H+H2O2<=>H2+HO2 	1.40E+12  0.0 	3600.0
O+H2O2<=>OH+HO2 	1.40E+13  0.0 	6400.0
OH+H2O2<=>H2O+HO2 6.10E+12  0.0 	1430.0
H2O2+M<=>OH+OH+M 	1.20E+17  0.0 	45500.0
H2O/15.0/
O+O+M<=>O2+M 		6.00E+13  0.0 	-1800.0
END